data/ENWL_4w_Network1_Feeders1and2 copy/Transformers.txt
! Transformer definition Feeder 1
! ------------------------------------------------------------------------------------------------------------------
New Transformer.TR1 Buses=[SourceBus.1.2.3 1.F1_1.2.3.4] Conns=[Delta Wye] kVs=[11 0.4] kVAs=[800 800] XHL=1 phases=3
New Reactor.Grounding1 phases=1 bus1=F1_1.4 bus2=F1_1.0 R=0.0 X=1E-10
! ------------------------------------------------------------------------------------------------------------------


! Transformer definition Feeder 2
! ------------------------------------------------------------------------------------------------------------------
New Transformer.TR2 Buses=[SourceBus.1.2.3 1.F2_1.2.3.4] Conns=[Delta Wye] kVs=[11 0.4] kVAs=[800 800] XHL=1 phases=3
New Reactor.Grounding2 phases=1 bus1=F2_1.4 bus2=F2_1.0 R=0.0 X=1E-10
! ------------------------------------------------------------------------------------------------------------------